
#======================================================================
# CRYSTAL DATA
#----------------------------------------------------------------------
data_VESTA_phase_1

_chemical_name_common                  '"Cu192"'
_cell_length_a                         23.136499
_cell_length_b                         23.136499
_cell_length_c                         7.084090
_cell_angle_alpha                      90.000000
_cell_angle_beta                       90.000000
_cell_angle_gamma                      120.000000
_cell_volume                           3284.051931
_space_group_name_H-M_alt              'P 1'
_space_group_IT_number                 1

loop_
_space_group_symop_operation_xyz
   'x, y, z'

loop_
   _atom_site_label
   _atom_site_occupancy
   _atom_site_fract_x
   _atom_site_fract_y
   _atom_site_fract_z
   _atom_site_adp_type
   _atom_site_U_iso_or_equiv
   _atom_site_type_symbol
   Cu1        1.0     0.125000     0.000000     0.000000    Uiso  ? Cu
   Cu2        1.0     0.000000     0.125000     0.000000    Uiso  ? Cu
   Cu3        1.0     0.125000     0.125000     0.000000    Uiso  ? Cu
   Cu4        1.0     0.125000     0.250000     0.000000    Uiso  ? Cu
   Cu5        1.0     0.000000     0.000000     0.000000    Uiso  ? Cu
   Cu6        1.0     0.041670     0.083330     0.333330    Uiso  ? Cu
   Cu7        1.0     0.000000     0.375000     1.000000    Uiso  ? Cu
   Cu8        1.0     0.125000     0.375000     0.000000    Uiso  ? Cu
   Cu9        1.0     0.125000     0.500000     1.000000    Uiso  ? Cu
   Cu10       1.0     0.000000     0.250000     0.000000    Uiso  ? Cu
   Cu11       1.0     0.041670     0.208330     0.333330    Uiso  ? Cu
   Cu12       1.0     0.041670     0.333330     0.333330    Uiso  ? Cu
   Cu13       1.0     0.000000     0.625000     0.000000    Uiso  ? Cu
   Cu14       1.0     0.125000     0.625000     0.000000    Uiso  ? Cu
   Cu15       1.0     0.125000     0.750000     0.000000    Uiso  ? Cu
   Cu16       1.0     0.000000     0.500000     0.000000    Uiso  ? Cu
   Cu17       1.0     0.041670     0.458330     0.333330    Uiso  ? Cu
   Cu18       1.0     0.041670     0.583330     0.333330    Uiso  ? Cu
   Cu19       1.0     0.000000     0.875000     1.000000    Uiso  ? Cu
   Cu20       1.0     0.125000     0.875000     0.000000    Uiso  ? Cu
   Cu21       1.0     0.000000     0.750000     0.000000    Uiso  ? Cu
   Cu22       1.0     0.041670     0.708330     0.333330    Uiso  ? Cu
   Cu23       1.0     0.041670     0.833330     0.333330    Uiso  ? Cu
   Cu24       1.0     0.041670     0.958330     0.333330    Uiso  ? Cu
   Cu25       1.0     0.375000     0.000000     0.000000    Uiso  ? Cu
   Cu26       1.0     0.250000     0.125000     0.000000    Uiso  ? Cu
   Cu27       1.0     0.375000     0.125000     0.000000    Uiso  ? Cu
   Cu28       1.0     0.375000     0.250000     0.000000    Uiso  ? Cu
   Cu29       1.0     0.250000     0.000000     0.000000    Uiso  ? Cu
   Cu30       1.0     0.291670     0.083330     0.333330    Uiso  ? Cu
   Cu31       1.0     0.250000     0.375000     0.000000    Uiso  ? Cu
   Cu32       1.0     0.375000     0.375000     0.000000    Uiso  ? Cu
   Cu33       1.0     0.375000     0.500000     0.000000    Uiso  ? Cu
   Cu34       1.0     0.250000     0.250000     0.000000    Uiso  ? Cu
   Cu35       1.0     0.166670     0.208330     0.333330    Uiso  ? Cu
   Cu36       1.0     0.291670     0.208330     0.333330    Uiso  ? Cu
   Cu37       1.0     0.291670     0.333330     0.333330    Uiso  ? Cu
   Cu38       1.0     0.166670     0.083330     0.333330    Uiso  ? Cu
   Cu39       1.0     0.083330     0.041670     0.666670    Uiso  ? Cu
   Cu40       1.0     0.208330     0.041670     0.666670    Uiso  ? Cu
   Cu41       1.0     0.208330     0.166670     0.666670    Uiso  ? Cu
   Cu42       1.0     0.250000     0.625000     1.000000    Uiso  ? Cu
   Cu43       1.0     0.375000     0.625000     0.000000    Uiso  ? Cu
   Cu44       1.0     0.375000     0.750000     1.000000    Uiso  ? Cu
   Cu45       1.0     0.250000     0.500000     0.000000    Uiso  ? Cu
   Cu46       1.0     0.166670     0.458330     0.333330    Uiso  ? Cu
   Cu47       1.0     0.291670     0.458330     0.333330    Uiso  ? Cu
   Cu48       1.0     0.291670     0.583330     0.333330    Uiso  ? Cu
   Cu49       1.0     0.166670     0.333330     0.333330    Uiso  ? Cu
   Cu50       1.0     0.083330     0.291670     0.666670    Uiso  ? Cu
   Cu51       1.0     0.208330     0.291670     0.666670    Uiso  ? Cu
   Cu52       1.0     0.208330     0.416670     0.666670    Uiso  ? Cu
   Cu53       1.0     0.083330     0.166670     0.666670    Uiso  ? Cu
   Cu54       1.0     0.250000     0.875000     0.000000    Uiso  ? Cu
   Cu55       1.0     0.375000     0.875000     0.000000    Uiso  ? Cu
   Cu56       1.0     0.250000     0.750000     0.000000    Uiso  ? Cu
   Cu57       1.0     0.166670     0.708330     0.333330    Uiso  ? Cu
   Cu58       1.0     0.291670     0.708330     0.333330    Uiso  ? Cu
   Cu59       1.0     0.291670     0.833330     0.333330    Uiso  ? Cu
   Cu60       1.0     0.166670     0.583330     0.333330    Uiso  ? Cu
   Cu61       1.0     0.083330     0.541670     0.666670    Uiso  ? Cu
   Cu62       1.0     0.208330     0.541670     0.666670    Uiso  ? Cu
   Cu63       1.0     0.208330     0.666670     0.666670    Uiso  ? Cu
   Cu64       1.0     0.083330     0.416670     0.666670    Uiso  ? Cu
   Cu65       1.0     0.166670     0.958330     0.333330    Uiso  ? Cu
   Cu66       1.0     0.291670     0.958330     0.333330    Uiso  ? Cu
   Cu67       1.0     0.166670     0.833330     0.333330    Uiso  ? Cu
   Cu68       1.0     0.083330     0.791670     0.666670    Uiso  ? Cu
   Cu69       1.0     0.208330     0.791670     0.666670    Uiso  ? Cu
   Cu70       1.0     0.208330     0.916670     0.666670    Uiso  ? Cu
   Cu71       1.0     0.083330     0.666670     0.666670    Uiso  ? Cu
   Cu72       1.0     0.083330     0.916670     0.666670    Uiso  ? Cu
   Cu73       1.0     0.625000     0.000000     0.000000    Uiso  ? Cu
   Cu74       1.0     0.500000     0.125000     0.000000    Uiso  ? Cu
   Cu75       1.0     0.625000     0.125000     0.000000    Uiso  ? Cu
   Cu76       1.0     0.625000     0.250000     0.000000    Uiso  ? Cu
   Cu77       1.0     0.500000     0.000000     0.000000    Uiso  ? Cu
   Cu78       1.0     0.541670     0.083330     0.333330    Uiso  ? Cu
   Cu79       1.0     0.500000     0.375000     0.000000    Uiso  ? Cu
   Cu80       1.0     0.625000     0.375000     0.000000    Uiso  ? Cu
   Cu81       1.0     0.625000     0.500000     0.000000    Uiso  ? Cu
   Cu82       1.0     0.500000     0.250000     0.000000    Uiso  ? Cu
   Cu83       1.0     0.416670     0.208330     0.333330    Uiso  ? Cu
   Cu84       1.0     0.541670     0.208330     0.333330    Uiso  ? Cu
   Cu85       1.0     0.541670     0.333330     0.333330    Uiso  ? Cu
   Cu86       1.0     0.416670     0.083330     0.333330    Uiso  ? Cu
   Cu87       1.0     0.333330     0.041670     0.666670    Uiso  ? Cu
   Cu88       1.0     0.458330     0.041670     0.666670    Uiso  ? Cu
   Cu89       1.0     0.458330     0.166670     0.666670    Uiso  ? Cu
   Cu90       1.0     0.500000     0.625000     0.000000    Uiso  ? Cu
   Cu91       1.0     0.625000     0.625000     0.000000    Uiso  ? Cu
   Cu92       1.0     0.625000     0.750000     0.000000    Uiso  ? Cu
   Cu93       1.0     0.500000     0.500000     0.000000    Uiso  ? Cu
   Cu94       1.0     0.416670     0.458330     0.333330    Uiso  ? Cu
   Cu95       1.0     0.541670     0.458330     0.333330    Uiso  ? Cu
   Cu96       1.0     0.541670     0.583330     0.333330    Uiso  ? Cu
   Cu97       1.0     0.416670     0.333330     0.333330    Uiso  ? Cu
   Cu98       1.0     0.333330     0.291670     0.666670    Uiso  ? Cu
   Cu99       1.0     0.458330     0.291670     0.666670    Uiso  ? Cu
   Cu100      1.0     0.458330     0.416670     0.666670    Uiso  ? Cu
   Cu101      1.0     0.333330     0.166670     0.666670    Uiso  ? Cu
   Cu102      1.0     0.500000     0.875000     1.000000    Uiso  ? Cu
   Cu103      1.0     0.625000     0.875000     0.000000    Uiso  ? Cu
   Cu104      1.0     0.500000     0.750000     0.000000    Uiso  ? Cu
   Cu105      1.0     0.416670     0.708330     0.333330    Uiso  ? Cu
   Cu106      1.0     0.541670     0.708330     0.333330    Uiso  ? Cu
   Cu107      1.0     0.541670     0.833330     0.333330    Uiso  ? Cu
   Cu108      1.0     0.416670     0.583330     0.333330    Uiso  ? Cu
   Cu109      1.0     0.333330     0.541670     0.666670    Uiso  ? Cu
   Cu110      1.0     0.458330     0.541670     0.666670    Uiso  ? Cu
   Cu111      1.0     0.458330     0.666670     0.666670    Uiso  ? Cu
   Cu112      1.0     0.333330     0.416670     0.666670    Uiso  ? Cu
   Cu113      1.0     0.416670     0.958330     0.333330    Uiso  ? Cu
   Cu114      1.0     0.541670     0.958330     0.333330    Uiso  ? Cu
   Cu115      1.0     0.416670     0.833330     0.333330    Uiso  ? Cu
   Cu116      1.0     0.333330     0.791670     0.666670    Uiso  ? Cu
   Cu117      1.0     0.458330     0.791670     0.666670    Uiso  ? Cu
   Cu118      1.0     0.458330     0.916670     0.666670    Uiso  ? Cu
   Cu119      1.0     0.333330     0.666670     0.666670    Uiso  ? Cu
   Cu120      1.0     0.333330     0.916670     0.666670    Uiso  ? Cu
   Cu121      1.0     0.875000     0.000000     0.000000    Uiso  ? Cu
   Cu122      1.0     0.750000     0.125000     0.000000    Uiso  ? Cu
   Cu123      1.0     0.875000     0.125000     0.000000    Uiso  ? Cu
   Cu124      1.0     0.875000     0.250000     0.000000    Uiso  ? Cu
   Cu125      1.0     0.750000     0.000000     0.000000    Uiso  ? Cu
   Cu126      1.0     0.791670     0.083330     0.333330    Uiso  ? Cu
   Cu127      1.0     0.750000     0.375000     0.000000    Uiso  ? Cu
   Cu128      1.0     0.875000     0.375000     0.000000    Uiso  ? Cu
   Cu129      1.0     0.875000     0.500000     0.000000    Uiso  ? Cu
   Cu130      1.0     0.750000     0.250000     0.000000    Uiso  ? Cu
   Cu131      1.0     0.666670     0.208330     0.333330    Uiso  ? Cu
   Cu132      1.0     0.791670     0.208330     0.333330    Uiso  ? Cu
   Cu133      1.0     0.791670     0.333330     0.333330    Uiso  ? Cu
   Cu134      1.0     0.666670     0.083330     0.333330    Uiso  ? Cu
   Cu135      1.0     0.583330     0.041670     0.666670    Uiso  ? Cu
   Cu136      1.0     0.708330     0.041670     0.666670    Uiso  ? Cu
   Cu137      1.0     0.708330     0.166670     0.666670    Uiso  ? Cu
   Cu138      1.0     0.750000     0.625000     0.000000    Uiso  ? Cu
   Cu139      1.0     0.875000     0.625000     0.000000    Uiso  ? Cu
   Cu140      1.0     0.875000     0.750000     0.000000    Uiso  ? Cu
   Cu141      1.0     0.750000     0.500000     0.000000    Uiso  ? Cu
   Cu142      1.0     0.666670     0.458330     0.333330    Uiso  ? Cu
   Cu143      1.0     0.791670     0.458330     0.333330    Uiso  ? Cu
   Cu144      1.0     0.791670     0.583330     0.333330    Uiso  ? Cu
   Cu145      1.0     0.666670     0.333330     0.333330    Uiso  ? Cu
   Cu146      1.0     0.583330     0.291670     0.666670    Uiso  ? Cu
   Cu147      1.0     0.708330     0.291670     0.666670    Uiso  ? Cu
   Cu148      1.0     0.708330     0.416670     0.666670    Uiso  ? Cu
   Cu149      1.0     0.583330     0.166670     0.666670    Uiso  ? Cu
   Cu150      1.0     0.750000     0.875000     0.000000    Uiso  ? Cu
   Cu151      1.0     0.875000     0.875000     0.000000    Uiso  ? Cu
   Cu152      1.0     0.750000     0.750000     0.000000    Uiso  ? Cu
   Cu153      1.0     0.666670     0.708330     0.333330    Uiso  ? Cu
   Cu154      1.0     0.791670     0.708330     0.333330    Uiso  ? Cu
   Cu155      1.0     0.791670     0.833330     0.333330    Uiso  ? Cu
   Cu156      1.0     0.666670     0.583330     0.333330    Uiso  ? Cu
   Cu157      1.0     0.583330     0.541670     0.666670    Uiso  ? Cu
   Cu158      1.0     0.708330     0.541670     0.666670    Uiso  ? Cu
   Cu159      1.0     0.708330     0.666670     0.666670    Uiso  ? Cu
   Cu160      1.0     0.583330     0.416670     0.666670    Uiso  ? Cu
   Cu161      1.0     0.666670     0.958330     0.333330    Uiso  ? Cu
   Cu162      1.0     0.791670     0.958330     0.333330    Uiso  ? Cu
   Cu163      1.0     0.666670     0.833330     0.333330    Uiso  ? Cu
   Cu164      1.0     0.583330     0.791670     0.666670    Uiso  ? Cu
   Cu165      1.0     0.708330     0.791670     0.666670    Uiso  ? Cu
   Cu166      1.0     0.708330     0.916670     0.666670    Uiso  ? Cu
   Cu167      1.0     0.583330     0.666670     0.666670    Uiso  ? Cu
   Cu168      1.0     0.583330     0.916670     0.666670    Uiso  ? Cu
   Cu169      1.0     0.916670     0.208330     0.333330    Uiso  ? Cu
   Cu170      1.0     0.916670     0.083330     0.333330    Uiso  ? Cu
   Cu171      1.0     0.833330     0.041670     0.666670    Uiso  ? Cu
   Cu172      1.0     0.958330     0.041670     0.666670    Uiso  ? Cu
   Cu173      1.0     0.958330     0.166670     0.666670    Uiso  ? Cu
   Cu174      1.0     0.916670     0.458330     0.333330    Uiso  ? Cu
   Cu175      1.0     0.916670     0.333330     0.333330    Uiso  ? Cu
   Cu176      1.0     0.833330     0.291670     0.666670    Uiso  ? Cu
   Cu177      1.0     0.958330     0.291670     0.666670    Uiso  ? Cu
   Cu178      1.0     0.958330     0.416670     0.666670    Uiso  ? Cu
   Cu179      1.0     0.833330     0.166670     0.666670    Uiso  ? Cu
   Cu180      1.0     0.916670     0.708330     0.333330    Uiso  ? Cu
   Cu181      1.0     0.916670     0.583330     0.333330    Uiso  ? Cu
   Cu182      1.0     0.833330     0.541670     0.666670    Uiso  ? Cu
   Cu183      1.0     0.958330     0.541670     0.666670    Uiso  ? Cu
   Cu184      1.0     0.958330     0.666670     0.666670    Uiso  ? Cu
   Cu185      1.0     0.833330     0.416670     0.666670    Uiso  ? Cu
   Cu186      1.0     0.916670     0.958330     0.333330    Uiso  ? Cu
   Cu187      1.0     0.916670     0.833330     0.333330    Uiso  ? Cu
   Cu188      1.0     0.833330     0.791670     0.666670    Uiso  ? Cu
   Cu189      1.0     0.958330     0.791670     0.666670    Uiso  ? Cu
   Cu190      1.0     0.958330     0.916670     0.666670    Uiso  ? Cu
   Cu191      1.0     0.833330     0.666670     0.666670    Uiso  ? Cu
   Cu192      1.0     0.833330     0.916670     0.666670    Uiso  ? Cu
